Geometry 6
 OpenBabel10111719443D

 39 44  0  0  0  0  0  0  0  0999 V2000
    7.6789    0.3382   -0.2000 C   0  0  0  0  0  0  0  0  0  0  0  0
    6.9962    1.5114    0.0771 C   0  0  0  0  0  0  0  0  0  0  0  0
    6.9387   -0.8083   -0.4425 C   0  0  0  0  0  0  0  0  0  0  0  0
    5.6165    1.4890    0.1082 C   0  0  0  0  0  0  0  0  0  0  0  0
    5.6130   -0.8449   -0.4129 N   0  0  0  0  0  0  0  0  0  0  0  0
    4.9621    0.2829   -0.1366 C   0  0  0  0  0  0  0  0  0  0  0  0
    3.4789    0.2406   -0.1045 C   0  0  0  0  0  0  0  0  0  0  0  0
    2.8454    1.3668   -0.2826 N   0  0  0  0  0  0  0  0  0  0  0  0
    2.7204   -0.9531    0.1303 C   0  0  0  0  0  0  0  0  0  0  0  0
    1.4924    1.4402   -0.2664 C   0  0  0  0  0  0  0  0  0  0  0  0
    3.1726   -2.1808    0.3908 N   0  0  0  0  0  0  0  0  0  0  0  0
    1.2904   -0.8711    0.1365 C   0  0  0  0  0  0  0  0  0  0  0  0
    0.6363    0.3824   -0.0669 C   0  0  0  0  0  0  0  0  0  0  0  0
    1.8843   -3.1124    0.5932 S   0  0  0  0  0  0  0  0  0  0  0  0
    0.6996   -2.0400    0.3782 N   0  0  0  0  0  0  0  0  0  0  0  0
   -0.8103    0.5389   -0.0339 C   0  0  0  0  0  0  0  0  0  0  0  0
   -1.8912   -0.7980   -0.0597 S   0  0  0  0  0  0  0  0  0  0  0  0
   -1.5590    1.7136    0.0345 C   0  0  0  0  0  0  0  0  0  0  0  0
   -3.3119    0.1441   -0.0138 C   0  0  0  0  0  0  0  0  0  0  0  0
   -1.0580    2.9803    0.0856 N   0  0  0  0  0  0  0  0  0  0  0  0
   -2.9719    1.4900    0.0496 C   0  0  0  0  0  0  0  0  0  0  0  0
   -4.6324   -0.4454   -0.0222 C   0  0  0  0  0  0  0  0  0  0  0  0
   -1.9340    3.9354    0.1414 C   0  0  0  0  0  0  0  0  0  0  0  0
   -3.8617    2.5172    0.1081 N   0  0  0  0  0  0  0  0  0  0  0  0
   -5.7983    0.1006    0.4404 C   0  0  0  0  0  0  0  0  0  0  0  0
   -4.9197   -2.0263   -0.6749 S   0  0  0  0  0  0  0  0  0  0  0  0
   -3.3441    3.7061    0.1509 C   0  0  0  0  0  0  0  0  0  0  0  0
   -6.9129   -0.7558    0.2799 C   0  0  0  0  0  0  0  0  0  0  0  0
   -6.5891   -1.9408   -0.3018 C   0  0  0  0  0  0  0  0  0  0  0  0
    8.7586    0.3099   -0.2286 H   0  0  0  0  0  0  0  0  0  0  0  0
    7.5327    2.4310    0.2687 H   0  0  0  0  0  0  0  0  0  0  0  0
    7.4333   -1.7445   -0.6752 H   0  0  0  0  0  0  0  0  0  0  0  0
    5.0356    2.3753    0.3128 H   0  0  0  0  0  0  0  0  0  0  0  0
    1.0870    2.4295   -0.4056 H   0  0  0  0  0  0  0  0  0  0  0  0
   -1.5585    4.9521    0.1769 H   0  0  0  0  0  0  0  0  0  0  0  0
   -5.8379    1.0879    0.8691 H   0  0  0  0  0  0  0  0  0  0  0  0
   -4.0255    4.5483    0.1981 H   0  0  0  0  0  0  0  0  0  0  0  0
   -7.9131   -0.4969    0.5925 H   0  0  0  0  0  0  0  0  0  0  0  0
   -7.2420   -2.7638   -0.5372 H   0  0  0  0  0  0  0  0  0  0  0  0
  1  2  2  0  0  0  0
  2  4  1  0  0  0  0
  2 31  1  0  0  0  0
  3  5  2  0  0  0  0
  3  1  1  0  0  0  0
  4 33  1  0  0  0  0
  5  6  1  0  0  0  0
  6  7  1  0  0  0  0
  6  4  2  0  0  0  0
  7  9  1  0  0  0  0
  8 10  1  0  0  0  0
  8  7  2  0  0  0  0
  9 12  1  0  0  0  0
  9 11  2  0  0  0  0
 10 13  2  0  0  0  0
 11 14  1  0  0  0  0
 12 15  2  0  0  0  0
 13 16  1  0  0  0  0
 13 12  1  0  0  0  0
 15 14  1  0  0  0  0
 16 18  2  0  0  0  0
 17 16  1  0  0  0  0
 17 19  1  0  0  0  0
 18 21  1  0  0  0  0
 18 20  1  0  0  0  0
 19 21  2  0  0  0  0
 20 23  2  0  0  0  0
 21 24  1  0  0  0  0
 22 19  1  0  0  0  0
 22 25  2  0  0  0  0
 23 27  1  0  0  0  0
 23 35  1  0  0  0  0
 24 27  2  0  0  0  0
 25 36  1  0  0  0  0
 26 29  1  0  0  0  0
 26 22  1  0  0  0  0
 27 37  1  0  0  0  0
 28 25  1  0  0  0  0
 28 38  1  0  0  0  0
 29 28  2  0  0  0  0
 30  1  1  0  0  0  0
 32  3  1  0  0  0  0
 34 10  1  0  0  0  0
 39 29  1  0  0  0  0
M  END
