Geometry 11
 OpenBabel10141716293D

 38 43  0  0  0  0  0  0  0  0999 V2000
   -7.9562    1.7170   -0.3733 C   0  0  0  0  0  0  0  0  0  0  0  0
   -7.0287    2.1603   -1.3031 C   0  0  0  0  0  0  0  0  0  0  0  0
   -7.5740    0.7918    0.5867 C   0  0  0  0  0  0  0  0  0  0  0  0
   -5.7250    1.6974   -1.2602 C   0  0  0  0  0  0  0  0  0  0  0  0
   -6.2719    0.3247    0.6293 C   0  0  0  0  0  0  0  0  0  0  0  0
   -5.3251    0.7857   -0.2841 C   0  0  0  0  0  0  0  0  0  0  0  0
   -3.9093    0.3841   -0.1838 C   0  0  0  0  0  0  0  0  0  0  0  0
   -2.9025    1.2992   -0.3333 C   0  0  0  0  0  0  0  0  0  0  0  0
   -3.4773   -0.9378    0.1244 C   0  0  0  0  0  0  0  0  0  0  0  0
   -1.5761    1.0426   -0.2302 N   0  0  0  0  0  0  0  0  0  0  0  0
   -4.2473   -2.0099    0.3275 N   0  0  0  0  0  0  0  0  0  0  0  0
   -2.0778   -1.2236    0.2370 C   0  0  0  0  0  0  0  0  0  0  0  0
   -1.1424   -0.1572    0.0440 C   0  0  0  0  0  0  0  0  0  0  0  0
   -3.2427   -3.2302    0.6350 S   0  0  0  0  0  0  0  0  0  0  0  0
   -1.8196   -2.4991    0.5285 N   0  0  0  0  0  0  0  0  0  0  0  0
    0.3079   -0.3153    0.1549 C   0  0  0  0  0  0  0  0  0  0  0  0
    0.9525   -1.4320    0.2967 N   0  0  0  0  0  0  0  0  0  0  0  0
    1.3133    1.1014    0.0962 S   0  0  0  0  0  0  0  0  0  0  0  0
    2.2891   -1.2154    0.3758 C   0  0  0  0  0  0  0  0  0  0  0  0
    2.6957    0.0888    0.3013 C   0  0  0  0  0  0  0  0  0  0  0  0
    4.0506    0.5965    0.3382 C   0  0  0  0  0  0  0  0  0  0  0  0
    4.4609    2.0897    1.1120 S   0  0  0  0  0  0  0  0  0  0  0  0
    5.1876    0.0367   -0.1769 C   0  0  0  0  0  0  0  0  0  0  0  0
    6.1203    1.9563    0.7285 C   0  0  0  0  0  0  0  0  0  0  0  0
    5.5205   -1.4048   -1.0994 S   0  0  0  0  0  0  0  0  0  0  0  0
    6.3715    0.8039    0.0372 C   0  0  0  0  0  0  0  0  0  0  0  0
    7.2141   -0.9622   -1.1862 C   0  0  0  0  0  0  0  0  0  0  0  0
    7.5251    0.1864   -0.5646 C   0  0  0  0  0  0  0  0  0  0  0  0
   -8.9708    2.0896   -0.3967 H   0  0  0  0  0  0  0  0  0  0  0  0
   -7.3164    2.8729   -2.0642 H   0  0  0  0  0  0  0  0  0  0  0  0
   -8.2937    0.4425    1.3146 H   0  0  0  0  0  0  0  0  0  0  0  0
   -5.0089    2.0313   -1.9994 H   0  0  0  0  0  0  0  0  0  0  0  0
   -5.9850   -0.3964    1.3809 H   0  0  0  0  0  0  0  0  0  0  0  0
   -3.1490    2.3348   -0.5314 H   0  0  0  0  0  0  0  0  0  0  0  0
    2.9603   -2.0498    0.5172 H   0  0  0  0  0  0  0  0  0  0  0  0
    6.8137    2.7274    1.0171 H   0  0  0  0  0  0  0  0  0  0  0  0
    7.8822   -1.6092   -1.7305 H   0  0  0  0  0  0  0  0  0  0  0  0
    8.5222    0.5967   -0.5365 H   0  0  0  0  0  0  0  0  0  0  0  0
  1  3  2  0  0  0  0
  2  4  2  0  0  0  0
  2  1  1  0  0  0  0
  3  5  1  0  0  0  0
  3 31  1  0  0  0  0
  4  6  1  0  0  0  0
  5 33  1  0  0  0  0
  6  7  1  0  0  0  0
  6  5  2  0  0  0  0
  7  9  1  0  0  0  0
  8 10  1  0  0  0  0
  8  7  2  0  0  0  0
  9 12  1  0  0  0  0
  9 11  2  0  0  0  0
 10 13  2  0  0  0  0
 11 14  1  0  0  0  0
 12 15  2  0  0  0  0
 13 16  1  0  0  0  0
 13 12  1  0  0  0  0
 15 14  1  0  0  0  0
 16 17  2  0  0  0  0
 17 19  1  0  0  0  0
 18 16  1  0  0  0  0
 18 20  1  0  0  0  0
 19 35  1  0  0  0  0
 20 21  1  0  0  0  0
 20 19  2  0  0  0  0
 21 22  1  0  0  0  0
 23 26  1  0  0  0  0
 23 21  2  0  0  0  0
 24 36  1  0  0  0  0
 24 22  1  0  0  0  0
 25 23  1  0  0  0  0
 26 24  2  0  0  0  0
 27 25  1  0  0  0  0
 27 28  2  0  0  0  0
 28 38  1  0  0  0  0
 28 26  1  0  0  0  0
 29  1  1  0  0  0  0
 30  2  1  0  0  0  0
 32  4  1  0  0  0  0
 34  8  1  0  0  0  0
 37 27  1  0  0  0  0
M  END
