Geometry 40
 OpenBabel05201815383D

 55 60  0  0  0  0  0  0  0  0999 V2000
   -5.2760   -0.2073   -1.0703 C   0  0  0  0  0  0  0  0  0  0  0  0
   -4.5434    0.7575   -1.7519 C   0  0  0  0  0  0  0  0  0  0  0  0
   -4.6831   -1.1105   -0.2870 N   0  0  0  0  0  0  0  0  0  0  0  0
   -3.1696    0.7839   -1.6179 C   0  0  0  0  0  0  0  0  0  0  0  0
   -3.3652   -1.0774   -0.1611 C   0  0  0  0  0  0  0  0  0  0  0  0
   -2.5429   -0.1475   -0.7976 C   0  0  0  0  0  0  0  0  0  0  0  0
   -1.0847   -0.1254   -0.5983 C   0  0  0  0  0  0  0  0  0  0  0  0
   -0.3930    1.0492   -0.4704 C   0  0  0  0  0  0  0  0  0  0  0  0
   -0.2791   -1.3000   -0.5386 C   0  0  0  0  0  0  0  0  0  0  0  0
    0.9473    1.1814   -0.3171 N   0  0  0  0  0  0  0  0  0  0  0  0
   -0.6773   -2.5694   -0.6411 N   0  0  0  0  0  0  0  0  0  0  0  0
    1.1339   -1.1757   -0.3710 C   0  0  0  0  0  0  0  0  0  0  0  0
    1.7231    0.1267   -0.2655 C   0  0  0  0  0  0  0  0  0  0  0  0
    0.6476   -3.4784   -0.5241 S   0  0  0  0  0  0  0  0  0  0  0  0
    1.7722   -2.3422   -0.3451 N   0  0  0  0  0  0  0  0  0  0  0  0
    3.1401    0.3633   -0.1111 C   0  0  0  0  0  0  0  0  0  0  0  0
    4.3509   -0.8671   -0.0088 S   0  0  0  0  0  0  0  0  0  0  0  0
    3.7371    1.6000   -0.0282 C   0  0  0  0  0  0  0  0  0  0  0  0
    5.6302    0.2727    0.1443 C   0  0  0  0  0  0  0  0  0  0  0  0
    3.1376    3.2230   -0.0627 S   0  0  0  0  0  0  0  0  0  0  0  0
    5.1481    1.5646    0.1143 C   0  0  0  0  0  0  0  0  0  0  0  0
    7.0124   -0.1369    0.2796 C   0  0  0  0  0  0  0  0  0  0  0  0
    4.7712    3.8288    0.1103 C   0  0  0  0  0  0  0  0  0  0  0  0
    5.7204    2.8795    0.1934 C   0  0  0  0  0  0  0  0  0  0  0  0
    8.0060    0.7033    0.3377 N   0  0  0  0  0  0  0  0  0  0  0  0
    7.4963   -1.8055    0.3831 S   0  0  0  0  0  0  0  0  0  0  0  0
    9.1956    0.0501    0.4650 C   0  0  0  0  0  0  0  0  0  0  0  0
    9.1302   -1.3032    0.5061 C   0  0  0  0  0  0  0  0  0  0  0  0
   -6.7735   -0.2683   -1.1627 C   0  0  0  0  0  0  0  0  0  0  0  0
   -5.0486    1.4694   -2.3897 H   0  0  0  0  0  0  0  0  0  0  0  0
   -2.5815    1.5096   -2.1644 H   0  0  0  0  0  0  0  0  0  0  0  0
   -2.9307   -1.8293    0.4857 H   0  0  0  0  0  0  0  0  0  0  0  0
   -0.9356    1.9865   -0.4760 H   0  0  0  0  0  0  0  0  0  0  0  0
    4.9248    4.8958    0.1431 H   0  0  0  0  0  0  0  0  0  0  0  0
    6.7759    3.0634    0.3038 H   0  0  0  0  0  0  0  0  0  0  0  0
   10.1083    0.6233    0.5217 H   0  0  0  0  0  0  0  0  0  0  0  0
    9.9322   -2.0133    0.6052 H   0  0  0  0  0  0  0  0  0  0  0  0
   -7.1174    0.3977   -1.9568 H   0  0  0  0  0  0  0  0  0  0  0  0
   -7.4539    0.1062    0.1548 C   0  0  0  0  0  0  0  0  0  0  0  0
   -7.0655   -1.2837   -1.4395 H   0  0  0  0  0  0  0  0  0  0  0  0
   -7.0951    1.0867    0.4816 H   0  0  0  0  0  0  0  0  0  0  0  0
   -7.1454   -0.6077    0.9212 H   0  0  0  0  0  0  0  0  0  0  0  0
   -8.9724    0.1344    0.0450 C   0  0  0  0  0  0  0  0  0  0  0  0
   -9.2649    0.8719   -0.7095 H   0  0  0  0  0  0  0  0  0  0  0  0
   -9.6634    0.4623    1.3623 C   0  0  0  0  0  0  0  0  0  0  0  0
   -9.3302   -0.8332   -0.3210 H   0  0  0  0  0  0  0  0  0  0  0  0
   -9.2713    1.4077    1.7512 H   0  0  0  0  0  0  0  0  0  0  0  0
   -9.4078   -0.2996    2.1051 H   0  0  0  0  0  0  0  0  0  0  0  0
  -11.1795    0.5616    1.2428 C   0  0  0  0  0  0  0  0  0  0  0  0
  -11.4298    1.3301    0.5062 H   0  0  0  0  0  0  0  0  0  0  0  0
  -11.8590    0.8818    2.5676 C   0  0  0  0  0  0  0  0  0  0  0  0
  -11.5722   -0.3786    0.8459 H   0  0  0  0  0  0  0  0  0  0  0  0
  -11.4922    1.8262    2.9741 H   0  0  0  0  0  0  0  0  0  0  0  0
  -11.6575    0.1058    3.3081 H   0  0  0  0  0  0  0  0  0  0  0  0
  -12.9402    0.9644    2.4549 H   0  0  0  0  0  0  0  0  0  0  0  0
  1  3  2  0  0  0  0
  2  4  2  0  0  0  0
  2  1  1  0  0  0  0
  3  5  1  0  0  0  0
  4  6  1  0  0  0  0
  5 32  1  0  0  0  0
  6  7  1  0  0  0  0
  6  5  2  0  0  0  0
  7  9  1  0  0  0  0
  7  8  2  0  0  0  0
  8 10  1  0  0  0  0
  9 12  1  0  0  0  0
 10 13  2  0  0  0  0
 11  9  2  0  0  0  0
 11 14  1  0  0  0  0
 12 15  2  0  0  0  0
 12 13  1  0  0  0  0
 13 16  1  0  0  0  0
 14 15  1  0  0  0  0
 16 18  2  0  0  0  0
 16 17  1  0  0  0  0
 17 19  1  0  0  0  0
 18 21  1  0  0  0  0
 19 22  1  0  0  0  0
 20 18  1  0  0  0  0
 20 23  1  0  0  0  0
 21 19  2  0  0  0  0
 21 24  1  0  0  0  0
 22 25  2  0  0  0  0
 22 26  1  0  0  0  0
 23 34  1  0  0  0  0
 23 24  2  0  0  0  0
 24 35  1  0  0  0  0
 25 27  1  0  0  0  0
 26 28  1  0  0  0  0
 27 28  2  0  0  0  0
 27 36  1  0  0  0  0
 28 37  1  0  0  0  0
 29  1  1  0  0  0  0
 29 39  1  0  0  0  0
 30  2  1  0  0  0  0
 31  4  1  0  0  0  0
 33  8  1  0  0  0  0
 38 29  1  0  0  0  0
 39 41  1  0  0  0  0
 39 42  1  0  0  0  0
 40 29  1  0  0  0  0
 43 39  1  0  0  0  0
 43 45  1  0  0  0  0
 44 43  1  0  0  0  0
 45 47  1  0  0  0  0
 45 48  1  0  0  0  0
 46 43  1  0  0  0  0
 49 45  1  0  0  0  0
 49 51  1  0  0  0  0
 50 49  1  0  0  0  0
 51 53  1  0  0  0  0
 51 54  1  0  0  0  0
 52 49  1  0  0  0  0
 55 51  1  0  0  0  0
M  END
