39
Geometry 6
C          7.67893        0.33817       -0.19997
C          6.99615        1.51141        0.07706
C          6.93870       -0.80827       -0.44250
C          5.61649        1.48905        0.10818
N          5.61302       -0.84489       -0.41290
C          4.96209        0.28288       -0.13655
C          3.47888        0.24060       -0.10446
N          2.84543        1.36682       -0.28259
C          2.72042       -0.95306        0.13026
C          1.49237        1.44019       -0.26637
N          3.17264       -2.18081        0.39079
C          1.29037       -0.87113        0.13654
C          0.63634        0.38242       -0.06686
S          1.88426       -3.11236        0.59317
N          0.69956       -2.04004        0.37816
C         -0.81025        0.53886       -0.03393
S         -1.89120       -0.79801       -0.05968
C         -1.55901        1.71359        0.03445
C         -3.31194        0.14406       -0.01376
N         -1.05802        2.98029        0.08561
C         -2.97187        1.49000        0.04963
C         -4.63244       -0.44541       -0.02221
C         -1.93403        3.93544        0.14138
N         -3.86166        2.51723        0.10813
C         -5.79827        0.10056        0.44043
S         -4.91968       -2.02632       -0.67491
C         -3.34412        3.70612        0.15085
C         -6.91288       -0.75581        0.27988
C         -6.58909       -1.94079       -0.30175
H          8.75863        0.30992       -0.22860
H          7.53273        2.43099        0.26868
H          7.43325       -1.74450       -0.67520
H          5.03556        2.37531        0.31276
H          1.08700        2.42948       -0.40557
H         -1.55846        4.95207        0.17692
H         -5.83790        1.08791        0.86914
H         -4.02551        4.54830        0.19812
H         -7.91309       -0.49694        0.59248
H         -7.24199       -2.76378       -0.53723
